CM DL6WU 22 ELEMENT LONG YAGI
CM 07/04/2019
CM DL6WU IN VHF COMMS
CE G.Hoch's Optimal Yagi - elements can be added or subtracted
GW  01 0021 +00.00000 -00.05184 +00.00000 +00.00000 +00.05184 +00.00000 +0.001000
GW  02 0021 +00.04868 -00.05080 +00.00000 +00.04868 +00.05080 +00.00000 +0.001000
GW  03 0021 +00.06541 -00.04486 +00.00000 +00.06541 +00.04486 +00.00000 +0.001000
GW  04 0021 +00.10344 -00.04434 +00.00000 +00.10344 +00.04434 +00.00000 +0.001000
GW  05 0021 +00.14907 -00.04382 +00.00000 +00.14907 +00.04382 +00.00000 +0.001000
GW  06 0021 +00.20231 -00.04330 +00.00000 +00.20231 +00.04330 +00.00000 +0.001000
GW  07 0021 +00.26163 -00.04279 +00.00000 +00.26163 +00.04279 +00.00000 +0.001000
GW  08 0021 +00.32552 -00.04227 +00.00000 +00.32552 +00.04227 +00.00000 +0.001000
GW  09 0021 +00.39245 -00.04176 +00.00000 +00.39245 +00.04176 +00.00000 +0.001000
GW  10 0021 +00.46242 -00.04141 +00.00000 +00.46242 +00.04141 +00.00000 +0.001000
GW  11 0021 +00.53544 -00.04107 +00.00000 +00.53544 +00.04107 +00.00000 +0.001000
GW  12 0021 +00.61149 -00.04073 +00.00000 +00.61149 +00.04073 +00.00000 +0.001000
GW  13 0021 +00.69059 -00.04056 +00.00000 +00.69059 +00.04056 +00.00000 +0.001000
GW  14 0021 +00.77121 -00.04039 +00.00000 +00.77121 +00.04039 +00.00000 +0.001000
GW  15 0021 +00.85335 -00.04022 +00.00000 +00.85335 +00.04022 +00.00000 +0.001000
GW  16 0021 +00.93701 -00.04005 +00.00000 +00.93701 +00.04005 +00.00000 +0.001000
GE 0 
EK 
EX  0 0002 0011 0 1 0 
FR 0 1 0 0  1420.000 1 
RP 0 1 2 1000 90 0 1 180
EN 
